This folder holds the output from the data set generated for the Machine Learning Physics class.  The data was gathered from OpenFAST simulations.  

1700 simulations were done, 100 for each class.  The classes are defined by years since installation.  Starting at year 0 up to year 24.
